trunk/Training/Virtual-2021/Session3/PVSystem_InvControl/pv_modeling/kwMeasurements.dss
Clear

New Circuit.TheveninEquivalent bus1=A pu=1.0 basekv=13.8 
~ Z0=[10, 10] Z1=[10, 10]

New XYCurve.Eff npts=4 xarray=[.1 .2 .4 1.0] yarray=[1 1 1 1]

New XYCurve.FatorPvsT npts=4 xarray=[0 25 75 100] yarray=[1 1 1 1] 

New Loadshape.Irrad npts=24 interval=1 
~ mult=[0 0 0 0 0 0 .1 .2 .3 .5 .8 .85 0.93 0.93 .92 .9 .7 .4 .1 0 0 0 0 0]

New Tshape.Temp npts=24 interval=1 
~ temp=[25 25 25 25 25 25 25 25 25 25 25 25 25 25 25 25 25 25 25 25 25 25 25 25]

New PVSystem.PV phases=3 bus1=A kV=13.8 Pmpp=1200 %pmpp=100 kVA=1200
~ conn=wye effcurve=Eff P-TCurve=FatorPvsT irradiance=1 daily=Irrad Tdaily=Temp wattpriority=no

New Monitor.PV_currents element=PVSystem.PV terminal=1 mode=0
New Monitor.PV_powers element=PVSystem.PV terminal=1 mode=1 ppolar=no
New Monitor.PV_v element=PVSystem.PV terminal=1 mode=3

Set voltagebases=[13.8]
Calcvoltagebases

set maxcontroli = 2000

set casename=kwMeasurements

Set mode=daily
Set stepsize=1h
Set number=24
Solve

Export monitors pv_powers
Export monitors pv_v
Export monitors pv_currents

Plot monitor object= pv_powers channels=(1 3 5 )
Plot monitor object= pv_powers channels=(2 4 6 )
